Circuit: * C:\Users\dtori\OneDrive\Escritorio\UC3M\CUARTO\vhdl_labs\analog_lab\LTSpice_models\entregable_23_24_estudiantes.asc

Direct Newton iteration for .op point succeeded.

Date: Thu Apr 18 19:42:56 2024
Total elapsed time: 0.055 seconds.

tnom = 27
temp = 27
method = trap
totiter = 12
traniter = 0
tranpoints = 0
accept = 0
rejected = 0
matrix size = 46
fillins = 2
solver = Normal
Avg thread counts: 8.0/0.0/8.0/8.0
Matrix Compiler1:     304 opcodes
Matrix Compiler2: 5.07 KB object code size
