Circuit: * C:\Users\dtori\OneDrive\Escritorio\UC3M\CUARTO\vhdl_labs\analog_lab\LTSpice_models\entregable_23_24_estudiantes.asc

Direct Newton iteration for .op point succeeded.

Date: Tue Apr 16 17:12:34 2024
Total elapsed time: 0.270 seconds.

tnom = 27
temp = 27
method = modified trap
totiter = 2102
traniter = 2088
tranpoints = 1045
accept = 1045
rejected = 0
matrix size = 45
fillins = 2
solver = Normal
Avg thread counts: 2.3/3.6/3.6/2.3
Matrix Compiler1: 5.36 KB object code size  3.0/2.4/[1.5]
Matrix Compiler2: 4.97 KB object code size  1.8/3.0/[1.1]

